15
GEOM_190_190
C    -0.8067180    0.0475439    1.5251484 
S     0.3116624    0.2691858    0.0786324 
H    -0.2255019   -0.2220590    2.4060774 
H    -1.4979938   -0.7535269    1.2757967 
H    -1.3445395    0.9720244    1.7264612 
C    -1.7790900    0.0209031   -1.8054100 
S    -0.5677430   -1.0588900   -0.9579280 
H    -2.5303600    0.4056500   -1.1116500 
H    -2.2931400   -0.5487300   -2.5840100 
H    -1.2769100    0.8703580   -2.2718800 
C     2.5277800    0.5632240    1.8126600 
S     1.2848000    1.6235700    0.9897200 
H     3.2810100    1.1954700    2.2894300 
H     2.0753200   -0.0677200    2.5815300 
H     3.0240100   -0.0818562    1.0861300 